Circuit: * D:\Github\LTSpice\LTS0002 - AD9834 output\Differential test.asc

Instance "m:u4:15": Length shorter than recommended for a level 1 MOSFET.
Instance "m:u4:13": Length shorter than recommended for a level 1 MOSFET.
Instance "m:u4:13": Width narrower than recommended for a level 1 MOSFET.
Instance "m:u4:11": Length shorter than recommended for a level 1 MOSFET.
Instance "m:u4:10": Length shorter than recommended for a level 1 MOSFET.
Instance "m:u4:14": Length shorter than recommended for a level 1 MOSFET.
Instance "m:u4:12": Length shorter than recommended for a level 1 MOSFET.
Instance "m:u4:9": Length shorter than recommended for a level 1 MOSFET.
Instance "m:u4:7": Length shorter than recommended for a level 1 MOSFET.
Instance "m:u4:6": Length shorter than recommended for a level 1 MOSFET.
Instance "m:u4:5": Length shorter than recommended for a level 1 MOSFET.
Instance "m:u4:4": Length shorter than recommended for a level 1 MOSFET.
Instance "m:u4:3": Length shorter than recommended for a level 1 MOSFET.
Instance "m:u4:2": Length shorter than recommended for a level 1 MOSFET.
Instance "m:u4:8": Length shorter than recommended for a level 1 MOSFET.
Instance "m:u4:1": Length shorter than recommended for a level 1 MOSFET.
Instance "m:u3:15": Length shorter than recommended for a level 1 MOSFET.
Instance "m:u3:13": Length shorter than recommended for a level 1 MOSFET.
Instance "m:u3:13": Width narrower than recommended for a level 1 MOSFET.
Instance "m:u3:11": Length shorter than recommended for a level 1 MOSFET.
Instance "m:u3:10": Length shorter than recommended for a level 1 MOSFET.
Instance "m:u3:14": Length shorter than recommended for a level 1 MOSFET.
Instance "m:u3:12": Length shorter than recommended for a level 1 MOSFET.
Instance "m:u3:9": Length shorter than recommended for a level 1 MOSFET.
Instance "m:u3:7": Length shorter than recommended for a level 1 MOSFET.
Instance "m:u3:6": Length shorter than recommended for a level 1 MOSFET.
Instance "m:u3:5": Length shorter than recommended for a level 1 MOSFET.
Instance "m:u3:4": Length shorter than recommended for a level 1 MOSFET.
Instance "m:u3:3": Length shorter than recommended for a level 1 MOSFET.
Instance "m:u3:2": Length shorter than recommended for a level 1 MOSFET.
Instance "m:u3:8": Length shorter than recommended for a level 1 MOSFET.
Instance "m:u3:1": Length shorter than recommended for a level 1 MOSFET.
Instance "m:u2:15": Length shorter than recommended for a level 1 MOSFET.
Instance "m:u2:13": Length shorter than recommended for a level 1 MOSFET.
Instance "m:u2:13": Width narrower than recommended for a level 1 MOSFET.
Instance "m:u2:11": Length shorter than recommended for a level 1 MOSFET.
Instance "m:u2:10": Length shorter than recommended for a level 1 MOSFET.
Instance "m:u2:14": Length shorter than recommended for a level 1 MOSFET.
Instance "m:u2:12": Length shorter than recommended for a level 1 MOSFET.
Instance "m:u2:9": Length shorter than recommended for a level 1 MOSFET.
Instance "m:u2:7": Length shorter than recommended for a level 1 MOSFET.
Instance "m:u2:6": Length shorter than recommended for a level 1 MOSFET.
Instance "m:u2:5": Length shorter than recommended for a level 1 MOSFET.
Instance "m:u2:4": Length shorter than recommended for a level 1 MOSFET.
Instance "m:u2:3": Length shorter than recommended for a level 1 MOSFET.
Instance "m:u2:2": Length shorter than recommended for a level 1 MOSFET.
Instance "m:u2:8": Length shorter than recommended for a level 1 MOSFET.
Instance "m:u2:1": Length shorter than recommended for a level 1 MOSFET.
Instance "m:u1:15": Length shorter than recommended for a level 1 MOSFET.
Instance "m:u1:13": Length shorter than recommended for a level 1 MOSFET.
Instance "m:u1:13": Width narrower than recommended for a level 1 MOSFET.
Instance "m:u1:11": Length shorter than recommended for a level 1 MOSFET.
Instance "m:u1:10": Length shorter than recommended for a level 1 MOSFET.
Instance "m:u1:14": Length shorter than recommended for a level 1 MOSFET.
Instance "m:u1:12": Length shorter than recommended for a level 1 MOSFET.
Instance "m:u1:9": Length shorter than recommended for a level 1 MOSFET.
Instance "m:u1:7": Length shorter than recommended for a level 1 MOSFET.
Instance "m:u1:6": Length shorter than recommended for a level 1 MOSFET.
Instance "m:u1:5": Length shorter than recommended for a level 1 MOSFET.
Instance "m:u1:4": Length shorter than recommended for a level 1 MOSFET.
Instance "m:u1:3": Length shorter than recommended for a level 1 MOSFET.
Instance "m:u1:2": Length shorter than recommended for a level 1 MOSFET.
Instance "m:u1:8": Length shorter than recommended for a level 1 MOSFET.
Instance "m:u1:1": Length shorter than recommended for a level 1 MOSFET.
Early termination of direct N-R iteration.
Direct Newton iteration failed to find .op point.  (Use ".option noopiter" to skip.)
Starting Gmin stepping
Gmin = 10
vernier = 0.5
Gmin = 1.86414
vernier = 0.25
vernier = 0.125
vernier = 0.0625
vernier = 0.03125
Gmin = 1.92836
vernier = 0.015625
vernier = 0.0078125
vernier = 0.00390625
vernier = 0.00195313
Gmin = 1.9368
vernier = 0.000976563
vernier = 0.000488281
Gmin = 0
Gmin stepping failed

Starting source stepping with srcstepmethod=0
Source Step = 3.0303%
Source Step = 33.3333%
Source Step = 56.0606%
Source Step = 56.2648%
Source Step = 56.2944%
Source Step = 56.324%
Source Step = 56.3536%
Source Step = 56.3832%
vernier = 0.00146484
Source Step = 56.4187%
Source Step = 56.4631%
Source Step = 56.5075%
Source Step = 56.5518%
Source Step = 56.5962%
vernier = 0.00219727
Source Step = 56.6473%
Source Step = 56.7139%
Source Step = 56.7805%
Source Step = 56.847%
Source Step = 56.9136%
vernier = 0.0032959
Source Step = 56.9869%
Source Step = 57.0867%
Source Step = 57.1866%
Source Step = 57.2865%
Source Step = 57.3864%
vernier = 0.00494385
Source Step = 57.4912%
Source Step = 57.641%
Source Step = 57.7909%
Source Step = 57.9407%
Source Step = 58.0905%
Source Step = 58.2403%
vernier = 0.00741577
Source Step = 58.465%
Source Step = 58.6897%
Source Step = 58.9145%
Source Step = 59.1392%
Source Step = 59.3639%
vernier = 0.0111237
Source Step = 59.6897%
Source Step = 60.0268%
Source Step = 60.3639%
Source Step = 60.701%
Source Step = 61.0381%
vernier = 0.0166855
Source Step = 61.51%
Source Step = 62.0156%
Source Step = 62.5212%
Source Step = 63.0268%
Source Step = 63.5325%
vernier = 0.0250282
Source Step = 64.2151%
Source Step = 64.9735%
Source Step = 65.7319%
Source Step = 66.4903%
Source Step = 67.2488%
vernier = 0.0375423
Source Step = 68.2347%
Source Step = 69.3724%
Source Step = 70.51%
Source Step = 71.6477%
Source Step = 72.7853%
vernier = 0.0563135
Source Step = 74.2074%
Source Step = 75.9139%
Source Step = 77.6203%
Source Step = 79.3268%
Source Step = 81.0333%
vernier = 0.0844703
Source Step = 83.081%
Source Step = 85.6407%
Source Step = 88.2004%
Source Step = 90.7601%
Source Step = 91.4641%
vernier = 0.00131985
Source Step = 91.4881%
Source Step = 91.5281%
Source Step = 91.5681%
Source Step = 91.608%
Source Step = 91.648%
Source Step = 91.688%
Source Step = 91.728%
Source Step = 91.768%
Source Step = 91.808%
Source Step = 91.848%
Source Step = 91.888%
Source Step = 91.928%
Source Step = 91.968%
Source Step = 92.008%
Source Step = 92.048%
Source Step = 92.088%
Source Step = 92.128%
Source Step = 92.168%
Source Step = 92.208%
Source Step = 92.248%
Source Step = 92.288%
Source Step = 92.328%
Source Step = 92.368%
Source Step = 92.408%
Source Step = 92.4479%
Source Step = 92.4879%
Source Step = 92.5279%
Source Step = 92.5679%
Source Step = 92.6079%
Source Step = 92.6479%
Source Step = 92.6879%
Source Step = 92.7279%
Source Step = 92.7679%
Source Step = 92.8079%
Source Step = 92.8479%
Source Step = 92.8879%
Source Step = 92.9279%
Source Step = 92.9679%
Source Step = 93.0079%
Source Step = 93.0479%
Source Step = 93.0879%
Source Step = 93.1279%
Source Step = 93.1679%
Source Step = 93.2079%
Source Step = 93.2479%
Source Step = 93.2879%
Source Step = 93.3278%
Source Step = 93.3678%
Source Step = 93.4078%
Source Step = 93.4478%
Source Step = 93.4878%
Source Step = 93.5278%
Source Step = 93.5678%
Source Step = 93.6078%
Source Step = 93.6478%
Source Step = 93.6878%
Source Step = 93.7278%
Source Step = 93.7678%
Source Step = 93.8078%
Source Step = 93.8478%
Source Step = 93.8878%
Source Step = 93.9278%
Source Step = 93.9678%
Source Step = 94.0078%
Source Step = 94.0478%
Source Step = 94.0878%
Source Step = 94.1278%
Source Step = 94.1678%
Source Step = 94.2077%
Source Step = 94.2477%
Source Step = 94.2877%
Source Step = 94.3277%
Source Step = 94.3677%
vernier = 0.00197977
Source Step = 94.4097%
Source Step = 94.4697%
Source Step = 94.5297%
Source Step = 94.5897%
Source Step = 94.6497%
Source Step = 94.7097%
vernier = 0.00296966
Source Step = 94.7997%
Source Step = 94.8897%
Source Step = 94.9797%
Source Step = 95.0696%
Source Step = 95.1596%
vernier = 0.00445449
Source Step = 95.2901%
Source Step = 95.4251%
Source Step = 95.5601%
Source Step = 95.6951%
Source Step = 95.8301%
vernier = 0.00668173
Source Step = 96.019%
Source Step = 96.2215%
Source Step = 96.424%
Source Step = 96.6265%
Source Step = 96.8289%
vernier = 0.0100226
Source Step = 97.1023%
Source Step = 97.406%
Source Step = 97.7097%
Source Step = 98.0134%
Source Step = 98.3171%
vernier = 0.0150339
Source Step = 98.712%
Source Step = 99.1676%
Source Step = 99.6231%
Source stepping succeeded in finding the operating point.

Changing Tseed to 9.76563e-011
Heightened Def Con from 1.2632e-010 to 2.12632e-009

Date: Sat Oct 17 09:14:48 2015
Total elapsed time: 39.682 seconds.

tnom = 27
temp = 27
method = modified trap
totiter = 60327
traniter = 3407
tranpoints = 1171
accept = 1126
rejected = 45
matrix size = 363
fillins = 1309
solver = Normal
Thread vector: 46.6/27.5[4] 24.3/18.3[4] 13.4/8.8[4] 2.3/2.4[1]  2592/500
Matrix Compiler1: 69,9 kB object code size  26.9/12.5/[7.1]
Matrix Compiler2: 54,7 kB object code size  10.5/10.8/[3.3]


