Circuit: * D:\Github\LTSpice\LTS0002 - AD9834 output\Differential test.asc

Instance "m:u2:15": Length shorter than recommended for a level 1 MOSFET.
Instance "m:u2:13": Length shorter than recommended for a level 1 MOSFET.
Instance "m:u2:13": Width narrower than recommended for a level 1 MOSFET.
Instance "m:u2:11": Length shorter than recommended for a level 1 MOSFET.
Instance "m:u2:10": Length shorter than recommended for a level 1 MOSFET.
Instance "m:u2:14": Length shorter than recommended for a level 1 MOSFET.
Instance "m:u2:12": Length shorter than recommended for a level 1 MOSFET.
Instance "m:u2:9": Length shorter than recommended for a level 1 MOSFET.
Instance "m:u2:7": Length shorter than recommended for a level 1 MOSFET.
Instance "m:u2:6": Length shorter than recommended for a level 1 MOSFET.
Instance "m:u2:5": Length shorter than recommended for a level 1 MOSFET.
Instance "m:u2:4": Length shorter than recommended for a level 1 MOSFET.
Instance "m:u2:3": Length shorter than recommended for a level 1 MOSFET.
Instance "m:u2:2": Length shorter than recommended for a level 1 MOSFET.
Instance "m:u2:8": Length shorter than recommended for a level 1 MOSFET.
Instance "m:u2:1": Length shorter than recommended for a level 1 MOSFET.
Instance "m:u1:15": Length shorter than recommended for a level 1 MOSFET.
Instance "m:u1:13": Length shorter than recommended for a level 1 MOSFET.
Instance "m:u1:13": Width narrower than recommended for a level 1 MOSFET.
Instance "m:u1:11": Length shorter than recommended for a level 1 MOSFET.
Instance "m:u1:10": Length shorter than recommended for a level 1 MOSFET.
Instance "m:u1:14": Length shorter than recommended for a level 1 MOSFET.
Instance "m:u1:12": Length shorter than recommended for a level 1 MOSFET.
Instance "m:u1:9": Length shorter than recommended for a level 1 MOSFET.
Instance "m:u1:7": Length shorter than recommended for a level 1 MOSFET.
Instance "m:u1:6": Length shorter than recommended for a level 1 MOSFET.
Instance "m:u1:5": Length shorter than recommended for a level 1 MOSFET.
Instance "m:u1:4": Length shorter than recommended for a level 1 MOSFET.
Instance "m:u1:3": Length shorter than recommended for a level 1 MOSFET.
Instance "m:u1:2": Length shorter than recommended for a level 1 MOSFET.
Instance "m:u1:8": Length shorter than recommended for a level 1 MOSFET.
Instance "m:u1:1": Length shorter than recommended for a level 1 MOSFET.
Direct Newton iteration failed to find .op point.  (Use ".option noopiter" to skip.)
Starting Gmin stepping
Gmin = 10
vernier = 0.5
Gmin = 1.86414
vernier = 0.25
vernier = 0.125
vernier = 0.0625
vernier = 0.03125
Gmin = 1.92836
vernier = 0.015625
vernier = 0.0078125
vernier = 0.00390625
vernier = 0.00195313
Gmin = 1.9368
vernier = 0.000976563
vernier = 0.000488281
Gmin = 0
Gmin stepping failed

Starting source stepping with srcstepmethod=0
Source Step = 3.0303%
Source Step = 33.3333%
Source Step = 56.0606%
Source Step = 57.7652%
Source Step = 59.6591%
Source Step = 61.553%
Source Step = 63.447%
Source Step = 65.3409%
vernier = 0.09375
Source Step = 67.9924%
Source Step = 68.6893%
Source Step = 68.7337%
Source Step = 68.7781%
Source Step = 68.8225%
Source Step = 68.8669%
Source Step = 68.9113%
vernier = 0.00219727
Source Step = 68.9756%
Source Step = 69.0422%
Source Step = 69.1088%
Source Step = 69.1754%
Source Step = 69.242%
vernier = 0.0032959
Source Step = 69.3352%
Source Step = 69.4351%
Source Step = 69.5349%
Source Step = 69.6348%
Source Step = 69.7347%
Source Step = 69.8346%
vernier = 0.00494385
Source Step = 69.9594%
Source Step = 70.1092%
Source Step = 70.259%
Source Step = 70.4089%
Source Step = 70.5587%
vernier = 0.00741577
Source Step = 70.7385%
Source Step = 70.9632%
Source Step = 71.1879%
Source Step = 71.4126%
Source Step = 71.6373%
vernier = 0.0111237
Source Step = 71.8958%
Source Step = 72.2328%
Source Step = 72.5699%
Source Step = 72.907%
Source Step = 73.2441%
vernier = 0.0166855
Source Step = 73.6149%
Source Step = 74.1205%
Source Step = 74.6261%
Source Step = 75.1317%
Source Step = 75.6374%
vernier = 0.0250282
Source Step = 76.1683%
Source Step = 76.9267%
Source Step = 77.6851%
Source Step = 78.4436%
Source Step = 79.202%
Source Step = 79.9604%
vernier = 0.0375423
Source Step = 81.0981%
Source Step = 82.2357%
Source Step = 83.3734%
Source Step = 84.511%
Source Step = 85.6486%
vernier = 0.0563135
Source Step = 87.2982%
Source Step = 89.0047%
Source Step = 90.7112%
Source Step = 92.4176%
Source Step = 94.1241%
vernier = 0.0844703
Source Step = 96.5132%
Source Step = 99.0729%
Source stepping succeeded in finding the operating point.


Date: Thu Oct 15 13:22:11 2015
Total elapsed time: 1.418 seconds.

tnom = 27
temp = 27
method = modified trap
totiter = 6861
traniter = 2173
tranpoints = 1046
accept = 1046
rejected = 0
matrix size = 186
fillins = 488
solver = Normal
Thread vector: 30.7/17.1[3] 12.8/7.3[3] 7.3/6.1[3] 1.1/0.9[2]  2592/500
Matrix Compiler1: 21,0 kB object code size  7.7/3.8/[1.8]
Matrix Compiler2: 24,6 kB object code size  3.8/5.8/[2.1]


