Circuit: * D:\Github\LTSpice\LTS0002 - AD9834 output\Differential test.asc

Instance "m:u2:15": Length shorter than recommended for a level 1 MOSFET.
Instance "m:u2:13": Length shorter than recommended for a level 1 MOSFET.
Instance "m:u2:13": Width narrower than recommended for a level 1 MOSFET.
Instance "m:u2:11": Length shorter than recommended for a level 1 MOSFET.
Instance "m:u2:10": Length shorter than recommended for a level 1 MOSFET.
Instance "m:u2:14": Length shorter than recommended for a level 1 MOSFET.
Instance "m:u2:12": Length shorter than recommended for a level 1 MOSFET.
Instance "m:u2:9": Length shorter than recommended for a level 1 MOSFET.
Instance "m:u2:7": Length shorter than recommended for a level 1 MOSFET.
Instance "m:u2:6": Length shorter than recommended for a level 1 MOSFET.
Instance "m:u2:5": Length shorter than recommended for a level 1 MOSFET.
Instance "m:u2:4": Length shorter than recommended for a level 1 MOSFET.
Instance "m:u2:3": Length shorter than recommended for a level 1 MOSFET.
Instance "m:u2:2": Length shorter than recommended for a level 1 MOSFET.
Instance "m:u2:8": Length shorter than recommended for a level 1 MOSFET.
Instance "m:u2:1": Length shorter than recommended for a level 1 MOSFET.
Instance "m:u1:15": Length shorter than recommended for a level 1 MOSFET.
Instance "m:u1:13": Length shorter than recommended for a level 1 MOSFET.
Instance "m:u1:13": Width narrower than recommended for a level 1 MOSFET.
Instance "m:u1:11": Length shorter than recommended for a level 1 MOSFET.
Instance "m:u1:10": Length shorter than recommended for a level 1 MOSFET.
Instance "m:u1:14": Length shorter than recommended for a level 1 MOSFET.
Instance "m:u1:12": Length shorter than recommended for a level 1 MOSFET.
Instance "m:u1:9": Length shorter than recommended for a level 1 MOSFET.
Instance "m:u1:7": Length shorter than recommended for a level 1 MOSFET.
Instance "m:u1:6": Length shorter than recommended for a level 1 MOSFET.
Instance "m:u1:5": Length shorter than recommended for a level 1 MOSFET.
Instance "m:u1:4": Length shorter than recommended for a level 1 MOSFET.
Instance "m:u1:3": Length shorter than recommended for a level 1 MOSFET.
Instance "m:u1:2": Length shorter than recommended for a level 1 MOSFET.
Instance "m:u1:8": Length shorter than recommended for a level 1 MOSFET.
Instance "m:u1:1": Length shorter than recommended for a level 1 MOSFET.
Direct Newton iteration failed to find .op point.  (Use ".option noopiter" to skip.)
Starting Gmin stepping
Gmin = 10
vernier = 0.5
Gmin = 1.86414
vernier = 0.25
vernier = 0.125
vernier = 0.0625
vernier = 0.03125
Gmin = 1.92836
vernier = 0.015625
vernier = 0.0078125
vernier = 0.00390625
vernier = 0.00195313
Gmin = 1.9368
vernier = 0.000976563
vernier = 0.000488281
Gmin = 0
Gmin stepping failed

Starting source stepping with srcstepmethod=0
Source Step = 3.0303%
Source Step = 33.3333%
Source Step = 56.0606%
Source Step = 56.2648%
Source Step = 56.2944%
Source Step = 56.324%
Source Step = 56.3536%
Source Step = 56.3832%
vernier = 0.00146484
Source Step = 56.4187%
Source Step = 56.4631%
Source Step = 56.5075%
Source Step = 56.5518%
Source Step = 56.5962%
vernier = 0.00219727
Source Step = 56.6473%
Source Step = 56.7139%
Source Step = 56.7805%
Source Step = 56.847%
Source Step = 56.9136%
vernier = 0.0032959
Source Step = 56.9869%
Source Step = 57.0867%
Source Step = 57.1866%
Source Step = 57.2865%
Source Step = 57.3864%
vernier = 0.00494385
Source Step = 57.4912%
Source Step = 57.641%
Source Step = 57.7909%
Source Step = 57.9407%
Source Step = 58.0905%
Source Step = 58.2403%
vernier = 0.00741577
Source Step = 58.465%
Source Step = 58.6897%
Source Step = 58.9145%
Source Step = 59.1392%
Source Step = 59.3639%
vernier = 0.0111237
Source Step = 59.6897%
Source Step = 60.0268%
Source Step = 60.3639%
Source Step = 60.701%
Source Step = 61.0381%
vernier = 0.0166855
Source Step = 61.51%
Source Step = 62.0156%
Source Step = 62.5212%
Source Step = 63.0268%
Source Step = 63.5325%
vernier = 0.0250282
Source Step = 64.2151%
Source Step = 64.9735%
Source Step = 65.7319%
Source Step = 66.4903%
Source Step = 67.2488%
vernier = 0.0375423
Source Step = 68.2347%
Source Step = 69.3724%
Source Step = 70.51%
Source Step = 71.6477%
Source Step = 72.7853%
vernier = 0.0563135
Source Step = 74.2074%
Source Step = 75.9139%
Source Step = 77.6203%
Source Step = 79.3268%
Source Step = 81.0333%
vernier = 0.0844703
Source Step = 83.081%
Source Step = 85.6407%
Source Step = 88.2004%
Source Step = 90.7601%
Source Step = 93.3198%
vernier = 0.126705
Source Step = 96.2635%
Source Step = 100%
Source stepping succeeded in finding the operating point.


Date: Thu Oct 15 19:46:09 2015
Total elapsed time: 1.091 seconds.

tnom = 27
temp = 27
method = trap
totiter = 4449
traniter = 0
tranpoints = 0
accept = 0
rejected = 0
matrix size = 186
fillins = 479
solver = Normal
Matrix Compiler1:    1257 opcodes
Matrix Compiler2: 24,4 kB object code size  2.4/4.0/[1.4]


