Circuit: * D:\Github\LTSpice\LTS0002 - AD9834 output\second test.asc

Direct Newton iteration failed to find .op point.  (Use ".option noopiter" to skip.)
Starting Gmin stepping
Gmin = 10
Gmin = 1.07374
vernier = 0.5
vernier = 0.25
vernier = 0.125
Gmin = 1.02385
vernier = 0.0625
vernier = 0.03125
vernier = 0.015625
Gmin = 1.01955
vernier = 0.0078125
vernier = 0.00390625
Gmin = 1.0126
vernier = 0.00520833
vernier = 0.00260417
vernier = 0.00130208
Gmin = 1.00833
vernier = 0.00173611
vernier = 0.000868055
Gmin = 1.00614
vernier = 0.00115741
vernier = 0.000578703
vernier = 0.000771604
Gmin = 1.00481
vernier = 0.000578703
vernier = 0.000771604
vernier = 0.000578703
Gmin = 1.00394
vernier = 0.000434027
Gmin = 0
Gmin stepping failed

Starting source stepping with srcstepmethod=0
Source Step = 3.0303%
Source Step = 33.3333%
Source Step = 63.6364%
Source Step = 93.9394%
Source stepping succeeded in finding the operating point.


Date: Thu Oct 15 08:12:58 2015
Total elapsed time: 1.015 seconds.

tnom = 27
temp = 27
method = modified trap
totiter = 32036
traniter = 26546
tranpoints = 10844
accept = 7442
rejected = 3402
matrix size = 28
fillins = 47
solver = Normal
Thread vector: 19.6/13.0[3] 5.0/3.1[3] 2.5/3.4[1] 0.2/2.0[1]  2592/500
Matrix Compiler1: 4,19 kB object code size  1.1/0.9/[0.5]
Matrix Compiler2: 3,85 kB object code size  0.5/0.8/[0.6]


