Circuit: * D:\Dropbox\School\05_Thomas_More\stm32dev\stm32f0 AFE dev\basic eevblog example.asc

Direct Newton iteration for .op point succeeded.

Date: Fri Aug 07 18:53:08 2015
Total elapsed time: 0.055 seconds.

tnom = 27
temp = 27
method = trap
totiter = 3
traniter = 0
tranpoints = 0
accept = 0
rejected = 0
matrix size = 5
fillins = 2
solver = Normal
Matrix Compiler1: 444 bytes object code size
Matrix Compiler2: 437 bytes object code size

