Circuit: * D:\Dropbox\School\05_Thomas_More\stm32dev\stm32f0 AFE dev\Constant current source TSV99x.asc

Instance "m:u1:_nmos1": Length shorter than recommended for a level 1 MOSFET.
Instance "m:u1:_nmos2": Length shorter than recommended for a level 1 MOSFET.
Direct Newton iteration for .op point succeeded.

Date: Mon Aug 10 13:39:57 2015
Total elapsed time: 0.090 seconds.

tnom = 27
temp = 27
method = modified trap
totiter = 2113
traniter = 2082
tranpoints = 1042
accept = 1042
rejected = 0
matrix size = 91
fillins = 73
solver = Normal
Matrix Compiler1: 6,59 kB object code size  1.5/0.9/[0.4]
Matrix Compiler2: 7,44 kB object code size  0.8/1.0/[0.6]


