Circuit: * D:\Dropbox\School\05_Thomas_More\stm32dev\stm32f0 AFE dev\Draft2.asc

WARNING: Less than two connections to node -3V3.  This node is used by R2.
Instance "m:u1:_nmos1": Length shorter than recommended for a level 1 MOSFET.
Instance "m:u1:_nmos2": Length shorter than recommended for a level 1 MOSFET.
Direct Newton iteration failed to find .op point.  (Use ".option noopiter" to skip.)
Starting Gmin stepping
Gmin = 10
Gmin = 1.07374
vernier = 0.5
vernier = 0.25
vernier = 0.125
vernier = 0.166667
Gmin = 1.06055
vernier = 0.0833333
vernier = 0.0416667
vernier = 0.0208333
vernier = 0.0104167
vernier = 0.00520833
vernier = 0.00260417
vernier = 0.00130208
vernier = 0.000651042
vernier = 0.000488281
Gmin = 1.06055
Gmin = 0
Gmin stepping failed

Starting source stepping with srcstepmethod=0
Source Step = 3.0303%
Source Step = 33.3333%
Source Step = 63.6364%
Source Step = 93.9394%
Source stepping succeeded in finding the operating point.


Date: Fri Aug 07 21:45:07 2015
Total elapsed time: 0.187 seconds.

tnom = 27
temp = 27
method = modified trap
totiter = 3906
traniter = 2181
tranpoints = 1084
accept = 1077
rejected = 7
matrix size = 94
fillins = 48
solver = Normal
Matrix Compiler1: 5,46 kB object code size  1.5/0.9/[0.5]
Matrix Compiler2: 7,42 kB object code size  1.6/2.1/[0.8]


