Circuit: * D:\Dropbox\School\05_Thomas_More\stm32dev\stm32f0 AFE dev\Draft3.asc

Instance "m:u1:_nmos1": Length shorter than recommended for a level 1 MOSFET.
Instance "m:u1:_nmos2": Length shorter than recommended for a level 1 MOSFET.
Direct Newton iteration failed to find .op point.  (Use ".option noopiter" to skip.)
Starting Gmin stepping
Gmin = 10
Gmin = 1.07374
vernier = 0.5
vernier = 0.25
vernier = 0.125
vernier = 0.0625
Gmin = 0.993649
vernier = 0.03125
vernier = 0.015625
vernier = 0.0078125
vernier = 0.00390625
vernier = 0.00195313
vernier = 0.000976563
vernier = 0.000488281
Gmin = 0
Gmin = 0
Gmin stepping failed

Starting source stepping with srcstepmethod=0
Source Step = 3.0303%
Source Step = 33.3333%
Source Step = 63.6364%
Source Step = 93.9394%
Source stepping succeeded in finding the operating point.


Date: Fri Aug 07 22:53:25 2015
Total elapsed time: 2.447 seconds.

tnom = 27
temp = 27
method = modified trap
totiter = 165038
traniter = 163273
tranpoints = 45859
accept = 32047
rejected = 13812
matrix size = 91
fillins = 244
solver = Normal
Matrix Compiler1: 14,7 kB object code size  3.3/2.1/[0.7]
Matrix Compiler2: 10,5 kB object code size  1.3/2.2/[0.6]


