Circuit: * D:\Dropbox\School\05_Thomas_More\stm32dev\stm32f0 AFE dev\non inverting TSV991.asc

Instance "m:u1:_nmos1": Length shorter than recommended for a level 1 MOSFET.
Instance "m:u1:_nmos2": Length shorter than recommended for a level 1 MOSFET.
Direct Newton iteration for .op point succeeded.

Date: Fri Aug 07 21:28:54 2015
Total elapsed time: 0.076 seconds.

tnom = 27
temp = 27
method = modified trap
totiter = 3690
traniter = 3664
tranpoints = 1227
accept = 1144
rejected = 83
matrix size = 92
fillins = 64
solver = Normal
Matrix Compiler1: 5,77 kB object code size  1.9/1.4/[0.5]
Matrix Compiler2: 7,34 kB object code size  1.2/1.6/[0.5]


