Circuit: * D:\Dropbox\School\05_Thomas_More\stm32dev\stm32f0 AFE dev\Voltage divider TSV991.asc

Instance "m:u2:_nmos1": Length shorter than recommended for a level 1 MOSFET.
Instance "m:u2:_nmos2": Length shorter than recommended for a level 1 MOSFET.
Instance "m:u1:_nmos1": Length shorter than recommended for a level 1 MOSFET.
Instance "m:u1:_nmos2": Length shorter than recommended for a level 1 MOSFET.
Direct Newton iteration failed to find .op point.  (Use ".option noopiter" to skip.)
Starting Gmin stepping
Gmin = 10
Gmin = 1.07374
vernier = 0.5
vernier = 0.25
vernier = 0.125
vernier = 0.0625
vernier = 0.03125
vernier = 0.015625
vernier = 0.0078125
vernier = 0.00390625
vernier = 0.00195313
Gmin = 1.07374
vernier = 0.000976563
vernier = 0.000488281
Gmin = 0
Gmin stepping failed

Starting source stepping with srcstepmethod=0
Source Step = 3.0303%
Source Step = 33.3333%
Source Step = 63.6364%
Source Step = 93.9394%
Source stepping succeeded in finding the operating point.


Date: Fri Aug 07 22:12:28 2015
Total elapsed time: 0.905 seconds.

tnom = 27
temp = 27
method = modified trap
totiter = 8493
traniter = 6746
tranpoints = 2344
accept = 1949
rejected = 395
matrix size = 181
fillins = 654
solver = Normal
Thread vector: 33.8/28.9[3] 7.0/4.0[3] 6.9/3.9[3] 0.8/1.3[1]  2592/500
Matrix Compiler1: 46,1 kB object code size  14.3/6.9/[4.5]
Matrix Compiler2: 24,0 kB object code size  3.5/6.0/[1.8]


